LAMMPS (12 Dec 2018)
# Define unit set and class of atomic model
units metal
atom_style atomic

# Periodic boundary conditions along all three dimensions
boundary p p p

# Create an FCC lattice with the lattice spacing supplied supplied by the user
# using a single conventional (orthogonal) unit cell
lattice fcc 3.0
Lattice spacing in x,y,z = 3 3 3
region box block 0 1 0 1 0 1 units lattice
create_box 1 box
Created orthogonal box = (0 0 0) to (3 3 3)
create_atoms 1 box
Created 4 atoms
  Time spent = 0.000593901 secs
mass 1 39.948

# Specify which KIM Model to use, letting LAMMPS compute the virial/pressure
pair_style kim LAMMPSvirial ex_model_Ar_P_LJ
pair_coeff * * Ar

# Set what thermodynamic information to print to log
thermo_style custom step atoms xlo xhi ylo yhi zlo zhi pe press pxx pyy pzz pxy pxz pyz
thermo 10 # Print every 10 timesteps

# Set what information to write to dump file
dump id all custom 10 output/lammps.dump id type x y z xs ys zs fx fy fz
dump_modify id format line "%d %d %16.7f %16.7f %16.7f %16.7f %16.7f %16.7f %16.7f %16.7f %16.7f"

# Set boundary conditions to be stress-free
fix 1 all box/relax iso 0.0

# Prescribe the force on each basis atom to remain at [0,0,0].  This has the effect of
# keeping the fractional coordinates of the basis atoms fixed during the minimization,
# so that only the lattice constant is varied
fix constrain_symmetry all setforce 0.0 0.0 0.0

# Perform static minimization using the Polack-Ribiere conjugate gradient method.
# The first argument is a convergence tolerance for the energy, the second argument
# is a convergence tolerance for the forces, and the latter two arguments set the
# maximum number of allowed iterations and force/energy evaluations, respectively.
minimize 1e-16 1e-16 2000 100000
  update every 1 steps, delay 0 steps, check yes
Step Atoms Xlo Xhi Ylo Yhi Zlo Zhi PotEng Press Pxx Pyy Pzz Pxy Pxz Pyz
0        4            0            3            0            3            0            3    269.98983     66452782     66452782     66452782     66452782 3.8927392e-09 4.3406365e-09 5.7033525e-09
Averages over the last 101 of 201 rows, steps 1000 to 2000:
Atoms Xlo Xhi Ylo Yhi Zlo Zhi PotEng Press Pxx Pyy Pzz Pxy Pxz Pyz
4 -0.225 3.225 -0.225 3.225 -0.225 3.225 48.2522 8.43387e+06 8.43387e+06 8.43387e+06 8.43387e+06 -6.95058e-11 -5.43056e-11 -5.82341e-11
Loop time of 0.521137 on 1 procs for 2000 steps with 4 atoms

Minimization stats:
  Stopping criterion = max iterations
  Energy initial, next-to-last, final =
  Force two-norm initial, final = 3359.6 291.619
  Force max component initial, final = 3359.6 291.619
  Final line search alpha, max atom move = 3.42522e-07 9.98859e-05
  Iterations, force evaluations = 2000 2000

# Define auxiliary variables to contain cohesive energy and equilibrium lattice constant
variable poteng    equal "c_thermo_pe"
variable natoms    equal "count(all)"
variable ecohesive equal "-v_poteng/v_natoms"
variable pressure  equal "c_thermo_press"
variable a         equal "lx"

# Output cohesive energy and equilibrium lattice constant
Final pressure = 4005707.53622692 bar
Cohesive energy = -6.46911040131582 eV/atom
Equilibrium lattice constant = 3.60000000000017 angstrom
