LAMMPS (12 Dec 2018)
# Define unit set and class of atomic model
units metal
atom_style atomic

# Periodic boundary conditions along all three dimensions
boundary p p p

# Create an FCC lattice with the lattice spacing supplied supplied by the user
# using a single conventional (orthogonal) unit cell
lattice fcc 2.3
Lattice spacing in x,y,z = 2.3 2.3 2.3
region box block 0 1 0 1 0 1 units lattice
create_box 1 box
Created orthogonal box = (0 0 0) to (2.3 2.3 2.3)
create_atoms 1 box
Created 4 atoms
  Time spent = 0.000285149 secs
mass 1 39.948

# Specify which KIM Model to use, letting LAMMPS compute the virial/pressure
pair_style kim LAMMPSvirial ex_model_Ar_P_LJ
pair_coeff * * Ar

# Set what thermodynamic information to print to log
thermo_style custom step atoms xlo xhi ylo yhi zlo zhi pe press pxx pyy pzz pxy pxz pyz
thermo 10 # Print every 10 timesteps

# Set what information to write to dump file
dump id all custom 10 output/lammps.dump id type x y z xs ys zs fx fy fz
dump_modify id format line "%d %d %16.7f %16.7f %16.7f %16.7f %16.7f %16.7f %16.7f %16.7f %16.7f"

# Set boundary conditions to be stress-free
fix 1 all box/relax iso 0.0

# Prescribe the force on each basis atom to remain at [0,0,0].  This has the effect of
# keeping the fractional coordinates of the basis atoms fixed during the minimization,
# so that only the lattice constant is varied
fix constrain_symmetry all setforce 0.0 0.0 0.0

# Perform static minimization using the Polack-Ribiere conjugate gradient method.
# The first argument is a convergence tolerance for the energy, the second argument
# is a convergence tolerance for the forces, and the latter two arguments set the
# maximum number of allowed iterations and force/energy evaluations, respectively.
minimize 1e-16 1e-16 2000 100000
  update every 1 steps, delay 0 steps, check yes
Step Atoms Xlo Xhi Ylo Yhi Zlo Zhi PotEng Press Pxx Pyy Pzz Pxy Pxz Pyz
0        4            0          2.3            0          2.3            0          2.3    6934.9393 3.6790105e+09 3.6790105e+09 3.6790105e+09 3.6790105e+09 1.770814e-07 -1.8248643e-06 -1.4172469e-06
Averages over the last 101 of 201 rows, steps 1000 to 2000:
Atoms Xlo Xhi Ylo Yhi Zlo Zhi PotEng Press Pxx Pyy Pzz Pxy Pxz Pyz
4 -0.1725 2.4725 -0.1725 2.4725 -0.1725 2.4725 1338.54 4.83846e+08 4.83846e+08 4.83846e+08 4.83846e+08 -1.14391e-09 1.19232e-08 1.07282e-08
Loop time of 1.11622 on 1 procs for 2000 steps with 4 atoms

Minimization stats:
  Stopping criterion = max iterations
  Energy initial, next-to-last, final =
  Force two-norm initial, final = 83815.7 7722.7
  Force max component initial, final = 83815.7 7722.7
  Final line search alpha, max atom move = 1.29347e-08 9.98906e-05
  Iterations, force evaluations = 2000 2000

# Define auxiliary variables to contain cohesive energy and equilibrium lattice constant
variable poteng    equal "c_thermo_pe"
variable natoms    equal "count(all)"
variable ecohesive equal "-v_poteng/v_natoms"
variable pressure  equal "c_thermo_press"
variable a         equal "lx"

# Output cohesive energy and equilibrium lattice constant
Final pressure = 235403241.647368 bar
Cohesive energy = -188.935356645442 eV/atom
Equilibrium lattice constant = 2.76000000000017 angstrom
